iidm/iidm-xml-converter/src/test/resources/fictitiousSwitchRef.xml
<?xml version="1.0" encoding="UTF-8"?>
<iidm:network xmlns:iidm="http://www.itesla_project.eu/schema/iidm/1_1" id="fictitious" caseDate="2017-06-25T17:43:00.000+01:00" forecastDistance="0" sourceFormat="test">
    <iidm:substation id="A" country="FR">
        <iidm:voltageLevel id="C" nominalV="225.0" lowVoltageLimit="0.0" topologyKind="NODE_BREAKER">
            <iidm:nodeBreakerTopology nodeCount="5">
                <iidm:busbarSection id="D" name="E" node="0" v="234.40912" angle="0.0"/>
                <iidm:switch id="F" name="G" kind="DISCONNECTOR" retained="false" open="false" fictitious="true" node1="0" node2="1"/>
                <iidm:switch id="H" name="I" kind="DISCONNECTOR" retained="false" open="false" fictitious="true" node1="0" node2="3"/>
                <iidm:switch id="J" name="K" kind="BREAKER" retained="true" open="false" fictitious="true" node1="1" node2="2"/>
                <iidm:switch id="L" name="M" kind="BREAKER" retained="true" open="false" fictitious="true" node1="3" node2="4"/>
            </iidm:nodeBreakerTopology>
        </iidm:voltageLevel>
        <iidm:voltageLevel id="N" nominalV="225.0" lowVoltageLimit="220.0" highVoltageLimit="245.00002" topologyKind="NODE_BREAKER">
            <iidm:nodeBreakerTopology nodeCount="23">
                <iidm:busbarSection id="O" name="E" node="0" v="236.44736" angle="15.250391"/>
                <iidm:busbarSection id="P" name="Q" node="1" v="236.44736" angle="15.250391"/>
                <iidm:switch id="R" name="S" kind="DISCONNECTOR" retained="false" open="true" node1="0" node2="19"/>
                <iidm:switch id="T" name="U" kind="DISCONNECTOR" retained="false" open="true" node1="0" node2="17"/>
                <iidm:switch id="V" name="W" kind="DISCONNECTOR" retained="false" open="true" node1="0" node2="21"/>
                <iidm:switch id="X" name="Y" kind="DISCONNECTOR" retained="false" open="true" node1="0" node2="11"/>
                <iidm:switch id="Z" name="AA" kind="DISCONNECTOR" retained="false" open="true" node1="0" node2="13"/>
                <iidm:switch id="AB" name="AC" kind="DISCONNECTOR" retained="false" open="false" node1="0" node2="15"/>
                <iidm:switch id="AD" name="AE" kind="DISCONNECTOR" retained="false" open="true" node1="0" node2="8"/>
                <iidm:switch id="AF" name="AG" kind="DISCONNECTOR" retained="false" open="true" fictitious="true" node1="0" node2="2"/>
                <iidm:switch id="AH" name="AI" kind="DISCONNECTOR" retained="false" open="false" node1="7" node2="0"/>
                <iidm:switch id="AJ" name="AK" kind="DISCONNECTOR" retained="false" open="false" node1="1" node2="6"/>
                <iidm:switch id="AL" name="AM" kind="DISCONNECTOR" retained="false" open="false" node1="1" node2="19"/>
                <iidm:switch id="AN" name="AO" kind="DISCONNECTOR" retained="false" open="false" node1="1" node2="17"/>
                <iidm:switch id="AP" name="AQ" kind="DISCONNECTOR" retained="false" open="false" node1="1" node2="21"/>
                <iidm:switch id="AR" name="AS" kind="DISCONNECTOR" retained="false" open="true" node1="1" node2="11"/>
                <iidm:switch id="AT" name="AU" kind="DISCONNECTOR" retained="false" open="true" node1="1" node2="13"/>
                <iidm:switch id="AV" name="AW" kind="DISCONNECTOR" retained="false" open="true" node1="1" node2="15"/>
                <iidm:switch id="AX" name="AY" kind="DISCONNECTOR" retained="false" open="false" node1="1" node2="8"/>
                <iidm:switch id="AZ" name="BA" kind="DISCONNECTOR" retained="false" open="true" fictitious="true" node1="1" node2="2"/>
                <iidm:switch id="BB" name="BC" kind="BREAKER" retained="true" open="true" fictitious="true" node1="2" node2="3"/>
                <iidm:switch id="BD" name="BE" kind="BREAKER" retained="true" open="false" node1="3" node2="4"/>
                <iidm:switch id="BF" name="BG" kind="DISCONNECTOR" retained="false" open="false" node1="3" node2="5"/>
                <iidm:switch id="BH" name="BI" kind="DISCONNECTOR" retained="false" open="true" node1="9" node2="3"/>
                <iidm:switch id="BJ" name="BK" kind="BREAKER" retained="true" open="false" node1="6" node2="7"/>
                <iidm:switch id="BL" name="BM" kind="BREAKER" retained="true" open="false" node1="8" node2="9"/>
                <iidm:switch id="BN" name="BO" kind="DISCONNECTOR" retained="false" open="false" node1="9" node2="10"/>
                <iidm:switch id="BP" name="BQ" kind="BREAKER" retained="true" open="true" node1="11" node2="12"/>
                <iidm:switch id="BR" name="BS" kind="BREAKER" retained="true" open="true" node1="13" node2="14"/>
                <iidm:switch id="BT" name="BU" kind="BREAKER" retained="true" open="false" node1="15" node2="16"/>
                <iidm:switch id="BV" name="BW" kind="BREAKER" retained="true" open="false" node1="17" node2="18"/>
                <iidm:switch id="BX" name="BY" kind="BREAKER" retained="true" open="false" node1="19" node2="20"/>
                <iidm:switch id="BZ" name="CA" kind="BREAKER" retained="true" open="false" node1="21" node2="22"/>
            </iidm:nodeBreakerTopology>
            <iidm:generator id="CB" energySource="HYDRO" minP="0.0" maxP="70.0" voltageRegulatorOn="false" targetP="0.0" targetV="0.0" targetQ="0.0" node="12">
                <iidm:reactiveCapabilityCurve>
                    <iidm:point p="0.0" minQ="-59.3" maxQ="60.0"/>
                    <iidm:point p="70.0" minQ="-54.55" maxQ="46.25"/>
                </iidm:reactiveCapabilityCurve>
            </iidm:generator>
            <iidm:generator id="CC" energySource="HYDRO" minP="0.0" maxP="80.0" voltageRegulatorOn="false" targetP="0.0" targetV="0.0" targetQ="0.0" node="14">
                <iidm:reactiveCapabilityCurve>
                    <iidm:point p="0.0" minQ="-56.8" maxQ="57.4"/>
                    <iidm:point p="80.0" minQ="-53.514" maxQ="36.4"/>
                </iidm:reactiveCapabilityCurve>
            </iidm:generator>
            <iidm:generator id="CD" energySource="HYDRO" minP="0.0" maxP="35.0" voltageRegulatorOn="true" targetP="21.789589" targetV="236.44736" targetQ="-20.701546" node="16" p="-21.789589" q="20.693394">
                <iidm:reactiveCapabilityCurve>
                    <iidm:point p="0.0" minQ="-20.6" maxQ="18.1"/>
                    <iidm:point p="35.0" minQ="-21.725" maxQ="6.3500004"/>
                </iidm:reactiveCapabilityCurve>
            </iidm:generator>
            <iidm:load id="CE" loadType="UNDEFINED" p0="-72.18689" q0="50.168945" node="4" p="-72.18689" q="50.168945"/>
            <iidm:load id="CF" loadType="UNDEFINED" p0="8.455854" q0="-23.695925" node="18" p="8.455854" q="-23.695925"/>
            <iidm:load id="CG" loadType="UNDEFINED" p0="90.39911" q0="-51.96869" node="20" p="90.39911" q="-51.96869"/>
            <iidm:load id="CH" loadType="UNDEFINED" p0="-5.102249" q0="4.9081216" node="22" p="-5.102249" q="4.9081216"/>
        </iidm:voltageLevel>
        <iidm:twoWindingsTransformer id="CI" r="2.0" x="14.745" g="0.0" b="3.2E-5" ratedU1="225.0" ratedU2="225.0" node1="2" voltageLevelId1="C" node2="10" voltageLevelId2="N">
            <iidm:phaseTapChanger lowTapPosition="0" tapPosition="22" regulationMode="CURRENT_LIMITER" regulationValue="930.6667" regulating="false">
                <iidm:terminalRef id="CI" side="ONE"/>
                <iidm:step rdr="39.78473" rdx="39.784725" rdg="0.0" rdb="0.0" ratio="1.0" phaseShift="-42.8"/>
                <iidm:step rdr="31.720245" rdx="31.720242" rdg="0.0" rdb="0.0" ratio="1.0" phaseShift="-40.18"/>
                <iidm:step rdr="23.655737" rdx="23.655735" rdg="0.0" rdb="0.0" ratio="1.0" phaseShift="-37.54"/>
                <iidm:step rdr="16.263271" rdx="16.263268" rdg="0.0" rdb="0.0" ratio="1.0" phaseShift="-34.9"/>
                <iidm:step rdr="9.542847" rdx="9.542842" rdg="0.0" rdb="0.0" ratio="1.0" phaseShift="-32.26"/>
                <iidm:step rdr="3.4944773" rdx="3.4944773" rdg="0.0" rdb="0.0" ratio="1.0" phaseShift="-29.6"/>
                <iidm:step rdr="-1.8818557" rdx="-1.8818527" rdg="0.0" rdb="0.0" ratio="1.0" phaseShift="-26.94"/>
                <iidm:step rdr="-7.258195" rdx="-7.2581954" rdg="0.0" rdb="0.0" ratio="1.0" phaseShift="-24.26"/>
                <iidm:step rdr="-11.962485" rdx="-11.962484" rdg="0.0" rdb="0.0" ratio="1.0" phaseShift="-21.58"/>
                <iidm:step rdr="-15.994745" rdx="-15.994745" rdg="0.0" rdb="0.0" ratio="1.0" phaseShift="-18.9"/>
                <iidm:step rdr="-19.354952" rdx="-19.354952" rdg="0.0" rdb="0.0" ratio="1.0" phaseShift="-16.22"/>
                <iidm:step rdr="-22.043127" rdx="-22.043129" rdg="0.0" rdb="0.0" ratio="1.0" phaseShift="-13.52"/>
                <iidm:step rdr="-24.73129" rdx="-24.731287" rdg="0.0" rdb="0.0" ratio="1.0" phaseShift="-10.82"/>
                <iidm:step rdr="-26.747417" rdx="-26.747417" rdg="0.0" rdb="0.0" ratio="1.0" phaseShift="-8.12"/>
                <iidm:step rdr="-28.091503" rdx="-28.091503" rdg="0.0" rdb="0.0" ratio="1.0" phaseShift="-5.42"/>
                <iidm:step rdr="-28.763538" rdx="-28.763536" rdg="0.0" rdb="0.0" ratio="1.0" phaseShift="-2.7"/>
                <iidm:step rdr="-28.763538" rdx="-28.763536" rdg="0.0" rdb="0.0" ratio="1.0" phaseShift="0.0"/>
                <iidm:step rdr="-28.763538" rdx="-28.763536" rdg="0.0" rdb="0.0" ratio="1.0" phaseShift="2.7"/>
                <iidm:step rdr="-28.091503" rdx="-28.091503" rdg="0.0" rdb="0.0" ratio="1.0" phaseShift="5.42"/>
                <iidm:step rdr="-26.747417" rdx="-26.747417" rdg="0.0" rdb="0.0" ratio="1.0" phaseShift="8.12"/>
                <iidm:step rdr="-24.73129" rdx="-24.731287" rdg="0.0" rdb="0.0" ratio="1.0" phaseShift="10.82"/>
                <iidm:step rdr="-22.043127" rdx="-22.043129" rdg="0.0" rdb="0.0" ratio="1.0" phaseShift="13.52"/>
                <iidm:step rdr="-19.354952" rdx="-19.354952" rdg="0.0" rdb="0.0" ratio="1.0" phaseShift="16.22"/>
                <iidm:step rdr="-15.994745" rdx="-15.994745" rdg="0.0" rdb="0.0" ratio="1.0" phaseShift="18.9"/>
                <iidm:step rdr="-11.962485" rdx="-11.962484" rdg="0.0" rdb="0.0" ratio="1.0" phaseShift="21.58"/>
                <iidm:step rdr="-7.258195" rdx="-7.2581954" rdg="0.0" rdb="0.0" ratio="1.0" phaseShift="24.26"/>
                <iidm:step rdr="-1.8818557" rdx="-1.8818527" rdg="0.0" rdb="0.0" ratio="1.0" phaseShift="26.94"/>
                <iidm:step rdr="3.4944773" rdx="3.4944773" rdg="0.0" rdb="0.0" ratio="1.0" phaseShift="29.6"/>
                <iidm:step rdr="9.542847" rdx="9.542842" rdg="0.0" rdb="0.0" ratio="1.0" phaseShift="32.26"/>
                <iidm:step rdr="16.263271" rdx="16.263268" rdg="0.0" rdb="0.0" ratio="1.0" phaseShift="34.9"/>
                <iidm:step rdr="23.655737" rdx="23.655735" rdg="0.0" rdb="0.0" ratio="1.0" phaseShift="37.54"/>
                <iidm:step rdr="31.720245" rdx="31.720242" rdg="0.0" rdb="0.0" ratio="1.0" phaseShift="40.18"/>
                <iidm:step rdr="39.78473" rdx="39.784725" rdg="0.0" rdb="0.0" ratio="1.0" phaseShift="42.8"/>
            </iidm:phaseTapChanger>
            <iidm:currentLimits1 permanentLimit="931.0"/>
            <iidm:currentLimits2 permanentLimit="931.0"/>
        </iidm:twoWindingsTransformer>
    </iidm:substation>
    <iidm:line id="CJ" r="0.009999999" x="0.100000024" g1="0.0" b1="0.0" g2="0.0" b2="0.0" node1="4" voltageLevelId1="C" node2="5" voltageLevelId2="N">
        <iidm:currentLimits1 permanentLimit="931.0"/>
        <iidm:currentLimits2 permanentLimit="931.0">
            <iidm:temporaryLimit name="IST" value="1640.0" fictitious="true"/>
            <iidm:temporaryLimit name="IT1" acceptableDuration="60"/>
        </iidm:currentLimits2>
    </iidm:line>
</iidm:network>
